fbs/tests/IEEE_feeder_results/34_allwye_out.txt
============================= test session starts ==============================
platform darwin -- Python 3.7.4, pytest-6.0.1, py-1.9.0, pluggy-0.13.1
rootdir: /Users/elainelaguerta/Dropbox/LBNL/LinDist3Flow/fbs
collected 1 item

fbs/tests/test_compare_opendss.py 

Testing File: /Users/elainelaguerta/Dropbox/LBNL/python-powerflow/IEEE_34_feeder_UB/IEEE_34_Bus_original.dss

Opendss Iterations: 2	Opendss Convergence: 0.0001
FBS iterations: 11	 FBS convergence:        1.8354276209256079e-10	 FBS tolerance: 1e-09
COMPARE V - SUMMARY STATS
                      A      B      C
MAX |fbs - dss|  0.5176 0.5176 0.5176
SUM |fbs - dss|  7.1050 4.7646 4.4065
MEAN |fbs - dss| 0.1920 0.1288 0.1191 

COMPARE V - ERROR, |fbs - dss|:
           A.(fbs - dss)   B.(fbs - dss)   C.(fbs - dss)
sourcebus 0.1340-0.5000j -0.5000+0.1340j  0.3660+0.3660j
800       0.0000+0.0000j  0.0000-0.0000j -0.0000-0.0000j
802       0.0019+0.0008j  0.0003-0.0014j -0.0012+0.0006j
806       0.0032+0.0013j  0.0006-0.0024j -0.0020+0.0010j
808       0.0272+0.0104j  0.0045-0.0203j -0.0171+0.0085j
810       0.0000+0.0000j  0.0045-0.0203j -0.0000+0.0000j
812       0.0553+0.0207j  0.0087-0.0412j -0.0345+0.0176j
814       0.0778+0.0285j  0.0117-0.0579j -0.0482+0.0252j
814r      0.1592+0.0288j -0.0007-0.0797j -0.0640+0.0522j
850       0.1592+0.0288j -0.0007-0.0797j -0.0640+0.0522j
816       0.1594+0.0288j -0.0007-0.0800j -0.0642+0.0523j
818       0.1592+0.0288j  0.0000+0.0000j -0.0000+0.0000j
824       0.1659+0.0303j -0.0015-0.0873j -0.0704+0.0562j
820       0.1551+0.0290j  0.0000+0.0000j -0.0000+0.0000j
822       0.1546+0.0290j  0.0000+0.0000j -0.0000+0.0000j
826       0.0000+0.0000j -0.0015-0.0872j -0.0000+0.0000j
828       0.1665+0.0304j -0.0015-0.0879j -0.0709+0.0565j
830       0.1796+0.0332j -0.0032-0.1026j -0.0832+0.0644j
854       0.1800+0.0333j -0.0032-0.1030j -0.0835+0.0646j
832       0.2985+0.0385j -0.0484-0.2016j -0.1475+0.1520j
858       0.2979+0.0375j -0.0486-0.2013j -0.1471+0.1514j
834       0.2971+0.0364j -0.0488-0.2010j -0.1467+0.1509j
860       0.2970+0.0364j -0.0487-0.2010j -0.1467+0.1507j
842       0.2971+0.0364j -0.0488-0.2010j -0.1467+0.1509j
836       0.2969+0.0364j -0.0487-0.2009j -0.1467+0.1507j
840       0.2969+0.0364j -0.0487-0.2009j -0.1467+0.1507j
862       0.2969+0.0364j -0.0487-0.2009j -0.1467+0.1507j
844       0.2971+0.0363j -0.0488-0.2009j -0.1466+0.1509j
846       0.2972+0.0360j -0.0490-0.2009j -0.1465+0.1510j
848       0.2972+0.0360j -0.0490-0.2009j -0.1464+0.1510j
852r      0.2985+0.0385j -0.0484-0.2016j -0.1475+0.1520j
888       0.3286+0.0585j -0.0463-0.2385j -0.1797+0.1688j
856       0.0000+0.0000j -0.0030-0.1030j -0.0000+0.0000j
852       0.2040+0.0383j -0.0070-0.1295j -0.1054+0.0795j
864       0.2979+0.0375j  0.0000-0.0000j -0.0000+0.0000j
838       0.0000+0.0000j -0.0487-0.2008j -0.0000+0.0000j
890       0.3042+0.0495j -0.0468-0.2227j -0.1638+0.1568j 

COMPARE V - FBS RESULTS
                       A               B               C
sourcebus 1.0000-0.0000j -0.5000-0.8660j -0.5000+0.8660j
800       1.0000-0.0000j -0.5000-0.8660j -0.5000+0.8660j
802       1.0000+0.0001j -0.4999-0.8658j -0.4999+0.8660j
806       1.0000+0.0001j -0.4999-0.8657j -0.4999+0.8660j
808       0.9999+0.0004j -0.4997-0.8647j -0.4999+0.8663j
810       0.0000+0.0000j -0.4996-0.8646j -0.0000+0.0000j
812       0.9999+0.0004j -0.4997-0.8647j -0.4999+0.8663j
814       0.9999+0.0004j -0.4997-0.8647j -0.4999+0.8663j
814r      1.0812+0.0004j -0.5122-0.8864j -0.5156+0.8933j
850       1.0812+0.0004j -0.5122-0.8864j -0.5156+0.8933j
816       1.0810+0.0004j -0.5122-0.8863j -0.5156+0.8933j
818       1.0800+0.0004j  0.0000+0.0000j -0.0000+0.0000j
824       1.0805+0.0006j -0.5117-0.8852j -0.5154+0.8931j
820       1.0548+0.0001j  0.0000+0.0000j -0.0000+0.0000j
822       1.0516+0.0001j  0.0000+0.0000j -0.0000+0.0000j
826       0.0000+0.0000j -0.5116-0.8850j -0.0000+0.0000j
828       1.0804+0.0006j -0.5117-0.8852j -0.5153+0.8931j
830       1.0795+0.0005j -0.5115-0.8848j -0.5150+0.8924j
854       1.0795+0.0005j -0.5115-0.8848j -0.5150+0.8924j
832       1.1739+0.0006j -0.5530-0.9567j -0.5568+0.9649j
858       1.1712-0.0012j -0.5532-0.9538j -0.5540+0.9634j
834       1.1681-0.0032j -0.5535-0.9504j -0.5508+0.9618j
860       1.1676-0.0031j -0.5533-0.9500j -0.5506+0.9614j
842       1.1680-0.0033j -0.5535-0.9503j -0.5507+0.9618j
836       1.1673-0.0031j -0.5531-0.9496j -0.5505+0.9613j
840       1.1673-0.0031j -0.5531-0.9496j -0.5505+0.9612j
862       1.1673-0.0031j -0.5531-0.9496j -0.5505+0.9613j
844       1.1678-0.0038j -0.5538-0.9497j -0.5501+0.9618j
846       1.1681-0.0047j -0.5545-0.9493j -0.5494+0.9625j
848       1.1681-0.0048j -0.5546-0.9492j -0.5493+0.9626j
852r      1.1740+0.0006j -0.5530-0.9567j -0.5568+0.9649j
888       1.1739+0.0006j -0.5530-0.9567j -0.5568+0.9649j
856       0.0000+0.0000j -0.5114-0.8847j -0.0000+0.0000j
852       1.0795+0.0005j -0.5115-0.8848j -0.5150+0.8924j
864       1.1712-0.0012j  0.0000-0.0000j -0.0000+0.0000j
838       0.0000+0.0000j -0.5530-0.9494j -0.0000+0.0000j
890       1.0833-0.0111j -0.5301-0.8830j -0.5032+0.8972j 

COMPARE V - DSS RESULTS
                       A               B               C
sourcebus 0.8660+0.5000j -0.0000-1.0000j -0.8660+0.5000j
800       1.0000-0.0000j -0.5000-0.8660j -0.5000+0.8660j
802       0.9981-0.0007j -0.5003-0.8644j -0.4987+0.8654j
806       0.9968-0.0012j -0.5005-0.8633j -0.4978+0.8650j
808       0.9728-0.0100j -0.5042-0.8444j -0.4828+0.8578j
810       0.0000+0.0000j -0.5042-0.8443j  0.0000+0.0000j
812       0.9446-0.0202j -0.5084-0.8235j -0.4654+0.8486j
814       0.9222-0.0281j -0.5114-0.8068j -0.4517+0.8411j
814r      0.9220-0.0283j -0.5115-0.8066j -0.4515+0.8411j
850       0.9220-0.0283j -0.5115-0.8066j -0.4515+0.8411j
816       0.9217-0.0284j -0.5115-0.8064j -0.4513+0.8409j
818       0.9208-0.0284j  0.0000+0.0000j  0.0000+0.0000j
824       0.9145-0.0297j -0.5103-0.7979j -0.4450+0.8369j
820       0.8998-0.0289j  0.0000+0.0000j  0.0000+0.0000j
822       0.8971-0.0289j  0.0000+0.0000j  0.0000+0.0000j
826       0.0000+0.0000j -0.5102-0.7978j  0.0000+0.0000j
828       0.9140-0.0298j -0.5102-0.7973j -0.4444+0.8365j
830       0.8999-0.0327j -0.5083-0.7821j -0.4318+0.8280j
854       0.8995-0.0327j -0.5083-0.7818j -0.4315+0.8278j
832       0.8754-0.0379j -0.5046-0.7550j -0.4093+0.8129j
858       0.8734-0.0387j -0.5047-0.7524j -0.4069+0.8120j
834       0.8710-0.0396j -0.5047-0.7494j -0.4041+0.8109j
860       0.8706-0.0395j -0.5045-0.7491j -0.4039+0.8107j
842       0.8709-0.0397j -0.5048-0.7493j -0.4040+0.8109j
836       0.8704-0.0394j -0.5044-0.7488j -0.4038+0.8105j
840       0.8704-0.0394j -0.5043-0.7487j -0.4038+0.8105j
862       0.8704-0.0394j -0.5043-0.7487j -0.4038+0.8105j
844       0.8707-0.0400j -0.5049-0.7488j -0.4035+0.8109j
846       0.8709-0.0407j -0.5055-0.7484j -0.4029+0.8115j
848       0.8709-0.0408j -0.5056-0.7483j -0.4028+0.8116j
852r      0.8754-0.0379j -0.5046-0.7550j -0.4093+0.8129j
888       0.8454-0.0579j -0.5068-0.7182j -0.3771+0.7961j
856       0.0000+0.0000j -0.5084-0.7816j  0.0000+0.0000j
852       0.8755-0.0378j -0.5045-0.7552j -0.4096+0.8129j
864       0.8734-0.0387j  0.0000+0.0000j  0.0000+0.0000j
838       0.0000+0.0000j -0.5043-0.7486j  0.0000+0.0000j
890       0.7790-0.0606j -0.4834-0.6602j -0.3395+0.7403j 

~~~~~~~~~~~~~~~~~~~~~~~~~~~~~~~~~~~~~~~~~~~~~~~~~~~~~~~~~~~~~~~~~~~~~~~~~~~~~~~~~~~~~~~~~~~~~~~~~~~~ 

COMPARE VMag - SUMMARY STATS
                      A      B      C
MAX |fbs - dss|  0.3266 0.2260 0.2331
SUM |fbs - dss|  6.4846 3.9123 3.6860
MEAN |fbs - dss| 0.1753 0.1057 0.0996 

COMPARE VMag - ERROR, |fbs - dss|:
           A.(fbs - dss)  B.(fbs - dss)  C.(fbs - dss)
sourcebus         0.0000         0.0000         0.0000
800               0.0000         0.0000         0.0000
802               0.0019         0.0011         0.0011
806               0.0032         0.0018         0.0019
808               0.0271         0.0152         0.0159
810               0.0000         0.0152         0.0000
812               0.0551         0.0310         0.0323
814               0.0774         0.0435         0.0455
814r              0.1588         0.0686         0.0768
850               0.1588         0.0686         0.0768
816               0.1589         0.0688         0.0770
818               0.1588         0.0000         0.0000
824               0.1654         0.0753         0.0833
820               0.1546         0.0000         0.0000
822               0.1541         0.0000         0.0000
826               0.0000         0.0753         0.0000
828               0.1660         0.0759         0.0838
830               0.1790         0.0892         0.0965
854               0.1794         0.0895         0.0968
832               0.2977         0.1969         0.2039
858               0.2970         0.1966         0.2031
834               0.2962         0.1963         0.2023
860               0.2961         0.1963         0.2022
842               0.2962         0.1963         0.2023
836               0.2960         0.1962         0.2022
840               0.2960         0.1962         0.2022
862               0.2960         0.1962         0.2022
844               0.2961         0.1962         0.2022
846               0.2962         0.1962         0.2023
848               0.2963         0.1962         0.2023
852r              0.2977         0.1969         0.2039
888               0.3266         0.2260         0.2331
856               0.0000         0.0894         0.0000
852               0.2032         0.1138         0.1201
864               0.2970         0.0000         0.0000
838               0.0000         0.1961         0.0000
890               0.3019         0.2116         0.2142 

COMPARE VMag - FBS RESULTS
               A      B      C
sourcebus 1.0000 1.0000 1.0000
800       1.0000 1.0000 1.0000
802       1.0000 0.9998 0.9999
806       1.0000 0.9997 0.9999
808       0.9999 0.9987 1.0002
810       0.0000 0.9986 0.0000
812       0.9999 0.9987 1.0002
814       0.9999 0.9987 1.0002
814r      1.0812 1.0237 1.0314
850       1.0812 1.0237 1.0314
816       1.0810 1.0237 1.0314
818       1.0800 0.0000 0.0000
824       1.0805 1.0225 1.0311
820       1.0548 0.0000 0.0000
822       1.0516 0.0000 0.0000
826       0.0000 1.0223 0.0000
828       1.0804 1.0224 1.0311
830       1.0795 1.0220 1.0303
854       1.0795 1.0220 1.0303
832       1.1739 1.1050 1.1140
858       1.1712 1.1026 1.1114
834       1.1681 1.0998 1.1083
860       1.1676 1.0994 1.1079
842       1.1680 1.0997 1.1083
836       1.1673 1.0990 1.1077
840       1.1673 1.0989 1.1077
862       1.1673 1.0989 1.1077
844       1.1678 1.0994 1.1080
846       1.1681 1.0993 1.1083
848       1.1681 1.0994 1.1083
852r      1.1740 1.1050 1.1140
888       1.1739 1.1050 1.1140
856       0.0000 1.0218 0.0000
852       1.0795 1.0220 1.0303
864       1.1712 0.0000 0.0000
838       0.0000 1.0988 0.0000
890       1.0833 1.0299 1.0286 

COMPARE VMag - DSS RESULTS
               A      B      C
sourcebus 1.0000 1.0000 1.0000
800       1.0000 1.0000 1.0000
802       0.9981 0.9987 0.9988
806       0.9968 0.9979 0.9981
808       0.9728 0.9835 0.9843
810       0.0000 0.9834 0.0000
812       0.9449 0.9678 0.9679
814       0.9226 0.9552 0.9547
814r      0.9224 0.9551 0.9546
850       0.9224 0.9551 0.9546
816       0.9221 0.9549 0.9544
818       0.9213 0.0000 0.0000
824       0.9150 0.9471 0.9478
820       0.9002 0.0000 0.0000
822       0.8975 0.0000 0.0000
826       0.0000 0.9469 0.0000
828       0.9144 0.9466 0.9472
830       0.9005 0.9328 0.9338
854       0.9001 0.9325 0.9335
832       0.8762 0.9081 0.9102
858       0.8742 0.9060 0.9083
834       0.8719 0.9035 0.9060
860       0.8715 0.9031 0.9057
842       0.8718 0.9035 0.9060
836       0.8713 0.9028 0.9056
840       0.8713 0.9028 0.9055
862       0.8713 0.9028 0.9056
844       0.8716 0.9032 0.9058
846       0.8718 0.9031 0.9060
848       0.8719 0.9031 0.9061
852r      0.8762 0.9081 0.9102
888       0.8474 0.8790 0.8809
856       0.0000 0.9324 0.0000
852       0.8763 0.9082 0.9103
864       0.8742 0.0000 0.0000
838       0.0000 0.9026 0.0000
890       0.7814 0.8183 0.8144 

~~~~~~~~~~~~~~~~~~~~~~~~~~~~~~~~~~~~~~~~~~~~~~~~~~~~~~~~~~~~~~~~~~~~~~~~~~~~~~~~~~~~~~~~~~~~~~~~~~~~ 

COMPARE I - SUMMARY STATS
                      A      B      C
MAX |fbs - dss|  0.5601 0.4718 0.4407
SUM |fbs - dss|  6.1266 5.7349 5.5485
MEAN |fbs - dss| 0.1915 0.1792 0.1734 

COMPARE I - ERROR, |fbs - dss|:
                A.(fbs - dss)   B.(fbs - dss)   C.(fbs - dss)
creg1a            nan+0.0000j     nan-0.0000j     nan+0.0000j
creg2a            nan+0.0000j     nan-0.0000j     nan+0.0000j
line_800_802  -0.5455+0.1090j  0.2613+0.3905j  0.2264-0.3781j
line_802_806  -0.5455+0.1097j  0.2619+0.3902j  0.2258-0.3784j
line_806_808  -0.5455+0.1101j  0.2623+0.3900j  0.2255-0.3787j
line_808_810   0.0000+0.0000j -0.0011+0.0005j  0.0000+0.0000j
line_808_812  -0.5454+0.1186j  0.2707+0.3855j  0.2181-0.3829j
line_812_814  -0.5453+0.1281j  0.2790+0.3805j  0.2096-0.3875j
line_814r_850 -0.3401+0.0323j  0.2317+0.3408j  0.2000-0.3642j
line_816_818   0.0284-0.0212j  0.0000+0.0000j  0.0000+0.0000j
line_816_824  -0.3685+0.0536j  0.2323+0.3403j  0.2007-0.3643j
line_818_820   0.0254-0.0200j  0.0000+0.0000j  0.0000+0.0000j
line_820_822   0.0114-0.0061j  0.0000+0.0000j  0.0000+0.0000j
line_824_826   0.0000+0.0000j -0.0014-0.0014j  0.0000+0.0000j
line_824_828  -0.3684+0.0561j  0.2373+0.3416j  0.1994-0.3657j
line_828_830  -0.3690+0.0565j  0.2374+0.3414j  0.1993-0.3660j
line_830_854  -0.3742+0.0582j  0.2424+0.3396j  0.1918-0.3710j
line_832_858   0.1084+0.0426j -0.0157-0.0633j -0.0206+0.0515j
line_834_842   0.0441+0.0418j  0.0101-0.0449j -0.0424+0.0101j
line_834_860   0.0391-0.0045j -0.0179-0.0195j  0.0109+0.0252j
line_836_840   0.0030-0.0047j -0.0039-0.0025j -0.0037+0.0037j
line_836_862  -0.0000-0.0001j -0.0050-0.0044j  0.0001+0.0000j
line_842_844   0.0426+0.0424j  0.0101-0.0449j -0.0424+0.0101j
line_844_846   0.0009+0.0399j  0.0198-0.0160j -0.0230-0.0135j
line_846_848   0.0010+0.0408j  0.0240-0.0122j -0.0232-0.0162j
line_850_816  -0.3401+0.0323j  0.2317+0.3408j  0.2000-0.3642j
line_852r_832  0.1601+0.0274j -0.0422-0.0918j -0.0353+0.0931j
line_854_852  -0.3742+0.0583j  0.2467+0.3374j  0.1917-0.3710j
line_854_856   0.0000+0.0000j -0.0041+0.0024j  0.0000+0.0000j
line_858_834   0.1017+0.0453j -0.0122-0.0640j -0.0207+0.0455j
line_858_864   0.0003-0.0004j  0.0000+0.0000j  0.0000+0.0000j
line_860_836   0.0095-0.0084j -0.0114-0.0116j -0.0030+0.0086j
line_862_838   0.0000+0.0000j -0.0029-0.0019j  0.0000+0.0000j
line_888_890   0.0476-0.0134j -0.0255-0.0278j -0.0144+0.0379j
subxf             nan+0.0000j     nan-0.0283j     nan+0.0286j
xfm1              nan-0.0829j     nan-0.0927j     nan+0.1723j 

COMPARE I - FBS RESULTS
                           A               B               C
line_800_802  0.0000+0.0000j -0.0429-0.0283j -0.0004+0.0286j
line_802_806  0.0000+0.0000j -0.0289-0.0191j -0.0002+0.0143j
line_806_808  0.0000+0.0000j -0.0149-0.0098j  0.0000+0.0000j
line_808_810  0.0000+0.0000j -0.0075-0.0049j  0.0000+0.0000j
line_808_812  0.0000+0.0000j  0.0000+0.0000j  0.0000+0.0000j
line_812_814  0.0000+0.0000j  0.0000+0.0000j  0.0000+0.0000j
line_814r_850 0.2049-0.1032j -0.0537-0.0357j -0.0030+0.0268j
line_816_818  0.1785-0.0918j  0.0000+0.0000j  0.0000+0.0000j
line_816_824  0.0265-0.0113j -0.0526-0.0348j -0.0028+0.0255j
line_818_820  0.1601-0.0827j  0.0000+0.0000j  0.0000+0.0000j
line_820_822  0.0710-0.0368j  0.0000+0.0000j  0.0000+0.0000j
line_824_826  0.0000+0.0000j -0.0191-0.0126j  0.0000+0.0000j
line_824_828  0.0265-0.0113j -0.0134-0.0088j -0.0025+0.0218j
line_828_830  0.0227-0.0097j -0.0134-0.0088j -0.0023+0.0195j
line_830_854  0.0000+0.0000j -0.0038-0.0025j  0.0000+0.0000j
line_832_858  0.3682+0.0451j -0.1497-0.3310j -0.2106+0.2921j
line_834_860  0.1230-0.0724j -0.1175-0.0664j  0.0022+0.1270j
line_834_842  0.1921+0.1442j -0.0118-0.2516j -0.2098+0.1035j
line_836_840  0.0157-0.0108j -0.0219-0.0114j  0.0014+0.0193j
line_836_862  0.0000+0.0000j -0.0288-0.0188j  0.0000+0.0000j
line_842_844  0.1869+0.1471j -0.0118-0.2516j -0.2098+0.1035j
line_844_846  0.0240+0.1564j  0.0803-0.1176j -0.1402-0.0417j
line_846_848  0.0240+0.1564j  0.1045-0.1012j -0.1400-0.0544j
line_850_816  0.2049-0.1032j -0.0537-0.0357j -0.0030+0.0268j
line_852r_832 0.5340-0.0396j -0.2964-0.4243j -0.2190+0.4682j
line_854_856  0.0000+0.0000j -0.0019-0.0013j  0.0000+0.0000j
line_854_852  0.0000+0.0000j  0.0000+0.0000j  0.0000+0.0000j
line_858_864  0.0012-0.0006j  0.0000+0.0000j  0.0000+0.0000j
line_858_834  0.3568+0.0507j -0.1436-0.3271j -0.2101+0.2796j
line_860_836  0.0420-0.0243j -0.0715-0.0436j  0.0006+0.0425j
line_862_838  0.0000+0.0000j -0.0144-0.0094j  0.0000+0.0000j
line_888_890  0.1617-0.0829j -0.1457-0.0927j -0.0082+0.1723j
creg1a        0.0000+0.0000j  0.0000-0.0000j -0.0000+0.0000j
creg2a        0.0000+0.0000j  0.0000-0.0000j -0.0000+0.0000j
subxf         0.0000+0.0000j -0.0429-0.0283j -0.0004+0.0286j
xfm1          0.1617-0.0829j -0.1457-0.0927j -0.0082+0.1723j 

COMPARE I - DSS RESULTS
                           A               B               C
line_800_802  0.5455-0.1090j -0.3042-0.4188j -0.2268+0.4067j
line_802_806  0.5455-0.1097j -0.2908-0.4093j -0.2260+0.3927j
line_806_808  0.5455-0.1101j -0.2772-0.3998j -0.2255+0.3787j
line_808_810  0.0000+0.0000j -0.0063-0.0054j  0.0000+0.0000j
line_808_812  0.5454-0.1186j -0.2707-0.3855j -0.2181+0.3829j
line_812_814  0.5453-0.1281j -0.2790-0.3805j -0.2096+0.3875j
line_814r_850 0.5451-0.1355j -0.2854-0.3765j -0.2030+0.3911j
line_816_818  0.1501-0.0706j  0.0000+0.0000j  0.0000+0.0000j
line_816_824  0.3949-0.0649j -0.2849-0.3751j -0.2035+0.3898j
line_818_820  0.1347-0.0627j  0.0000+0.0000j  0.0000+0.0000j
line_820_822  0.0596-0.0307j  0.0000+0.0000j  0.0000+0.0000j
line_824_826  0.0000+0.0000j -0.0177-0.0112j  0.0000+0.0000j
line_824_828  0.3948-0.0674j -0.2506-0.3504j -0.2018+0.3875j
line_828_830  0.3917-0.0662j -0.2508-0.3502j -0.2016+0.3855j
line_830_854  0.3742-0.0582j -0.2462-0.3421j -0.1918+0.3710j
line_832_858  0.2598+0.0025j -0.1339-0.2676j -0.1900+0.2406j
line_834_860  0.0839-0.0679j -0.0996-0.0468j -0.0087+0.1018j
line_834_842  0.1481+0.1024j -0.0219-0.2067j -0.1675+0.0934j
line_836_840  0.0128-0.0062j -0.0180-0.0089j  0.0051+0.0156j
line_836_862  0.0000+0.0001j -0.0238-0.0145j -0.0001-0.0000j
line_842_844  0.1442+0.1047j -0.0220-0.2067j -0.1674+0.0935j
line_844_846  0.0231+0.1165j  0.0605-0.1016j -0.1171-0.0282j
line_846_848  0.0230+0.1157j  0.0805-0.0890j -0.1168-0.0382j
line_850_816  0.5451-0.1355j -0.2854-0.3765j -0.2030+0.3911j
line_852r_832 0.3739-0.0670j -0.2542-0.3325j -0.1837+0.3750j
line_854_856  0.0000+0.0000j  0.0022-0.0036j  0.0000+0.0000j
line_854_852  0.3742-0.0583j -0.2467-0.3374j -0.1917+0.3710j
line_858_864  0.0009-0.0002j  0.0000+0.0000j  0.0000+0.0000j
line_858_834  0.2551+0.0053j -0.1314-0.2632j -0.1895+0.2340j
line_860_836  0.0324-0.0159j -0.0600-0.0320j  0.0036+0.0339j
line_862_838  0.0000+0.0000j -0.0115-0.0075j  0.0000+0.0000j
line_888_890  0.1140-0.0695j -0.1203-0.0649j  0.0062+0.1344j 

~~~~~~~~~~~~~~~~~~~~~~~~~~~~~~~~~~~~~~~~~~~~~~~~~~~~~~~~~~~~~~~~~~~~~~~~~~~~~~~~~~~~~~~~~~~~~~~~~~~~ 

COMPARE Stx - SUMMARY STATS
                      A      B      C
MAX |fbs - dss|  0.5562 0.4698 0.4407
SUM |fbs - dss|  6.4785 5.9819 5.8061
MEAN |fbs - dss| 0.2025 0.1869 0.1814 

COMPARE Stx - ERROR, |fbs - dss|:
                A.(fbs - dss)   B.(fbs - dss)   C.(fbs - dss)
creg1a            nan+0.0000j     nan-0.0000j     nan+0.0000j
creg2a            nan+0.0000j     nan-0.0000j     nan+0.0000j
line_800_802  -0.5455-0.1090j -0.4688-0.0310j -0.4406+0.0071j
line_802_806  -0.5445-0.1091j -0.4683-0.0311j -0.4401+0.0067j
line_806_808  -0.5439-0.1091j -0.4679-0.0312j -0.4398+0.0065j
line_808_810   0.0000+0.0000j  0.0002+0.0013j  0.0000+0.0000j
line_808_812  -0.5317-0.1099j -0.4620-0.0342j -0.4337+0.0022j
line_812_814  -0.5177-0.1100j -0.4551-0.0363j -0.4264-0.0025j
line_814r_850 -0.2848+0.0022j -0.3906-0.0083j -0.3951+0.0053j
line_816_818   0.0525+0.0385j -0.0000+0.0000j  0.0000+0.0000j
line_816_824  -0.3372-0.0364j -0.3904-0.0091j -0.3955+0.0059j
line_818_820   0.0471+0.0355j  0.0000+0.0000j  0.0000+0.0000j
line_820_822   0.0203+0.0130j  0.0000+0.0000j  0.0000+0.0000j
line_824_826   0.0000+0.0000j  0.0030+0.0021j  0.0000+0.0000j
line_824_828  -0.3345-0.0377j -0.3928-0.0139j -0.3934+0.0055j
line_828_830  -0.3355-0.0383j -0.3926-0.0140j -0.3935+0.0053j
line_830_854  -0.3387-0.0401j -0.3886-0.0166j -0.3900-0.0014j
line_832_858   0.2049-0.0407j  0.1297-0.0059j  0.1258+0.0154j
line_834_842   0.0991-0.0740j  0.0797-0.0401j  0.0717-0.0467j
line_834_860   0.0681+0.0284j  0.0427+0.0239j  0.0349+0.0380j
line_836_840   0.0070+0.0077j  0.0072+0.0055j  0.0072+0.0016j
line_836_862  -0.0000+0.0001j  0.0110+0.0064j -0.0000+0.0001j
line_842_844   0.0963-0.0756j  0.0797-0.0402j  0.0717-0.0468j
line_844_846   0.0120-0.0804j  0.0217-0.0448j  0.0126-0.0514j
line_846_848   0.0120-0.0812j  0.0122-0.0501j  0.0085-0.0544j
line_850_816  -0.2848+0.0022j -0.3906-0.0083j -0.3951+0.0053j
line_852r_832  0.2970+0.0023j  0.1906+0.0248j  0.1936+0.0452j
line_854_852  -0.3385-0.0402j -0.3891-0.0214j -0.3898-0.0014j
line_854_856   0.0000+0.0000j  0.0003+0.0046j  0.0000+0.0000j
line_858_834   0.1952-0.0452j  0.1271-0.0101j  0.1186+0.0111j
line_858_864   0.0006+0.0006j -0.0000+0.0000j  0.0000+0.0000j
line_860_836   0.0202+0.0157j  0.0267+0.0150j  0.0145+0.0073j
line_862_838   0.0000-0.0000j  0.0055+0.0036j  0.0000+0.0000j
line_888_890   0.0893+0.0453j  0.0617+0.0347j  0.0662+0.0324j
subxf             nan-0.0000j     nan+0.0230j     nan+0.0140j
xfm1              nan+0.0974j     nan+0.0882j     nan+0.0880j 

COMPARE Stx - FBS RESULTS
                           A               B              C
line_800_802  0.0000-0.0000j  0.0460+0.0230j 0.0250+0.0140j
line_802_806  0.0000+0.0000j  0.0310+0.0155j 0.0125+0.0070j
line_806_808  0.0000+0.0000j  0.0160+0.0080j 0.0000+0.0000j
line_808_810  0.0000+0.0000j  0.0080+0.0040j 0.0000+0.0000j
line_808_812  0.0000+0.0000j -0.0000+0.0000j 0.0000+0.0000j
line_812_814  0.0000+0.0000j -0.0000+0.0000j 0.0000+0.0000j
line_814r_850 0.2215+0.1116j  0.0591+0.0293j 0.0255+0.0112j
line_816_818  0.1929+0.0994j -0.0000+0.0000j 0.0000+0.0000j
line_816_824  0.0286+0.0123j  0.0578+0.0288j 0.0242+0.0106j
line_818_820  0.1729+0.0894j  0.0000+0.0000j 0.0000+0.0000j
line_820_822  0.0749+0.0388j  0.0000+0.0000j 0.0000+0.0000j
line_824_826  0.0000+0.0000j  0.0209+0.0105j 0.0000+0.0000j
line_824_828  0.0286+0.0123j  0.0146+0.0073j 0.0207+0.0090j
line_828_830  0.0245+0.0105j  0.0146+0.0073j 0.0186+0.0080j
line_830_854  0.0000+0.0000j  0.0042+0.0021j 0.0000+0.0000j
line_832_858  0.4323-0.0527j  0.3994-0.0399j 0.3991-0.0405j
line_834_860  0.1439+0.0842j  0.1281+0.0749j 0.1209+0.0721j
line_834_842  0.2240-0.1691j  0.2456-0.1280j 0.2152-0.1448j
line_836_840  0.0184+0.0126j  0.0229+0.0145j 0.0178+0.0120j
line_836_862  0.0000-0.0000j  0.0338+0.0169j 0.0000+0.0000j
line_842_844  0.2178-0.1725j  0.2456-0.1280j 0.2151-0.1448j
line_844_846  0.0274-0.1828j  0.0672-0.1414j 0.0370-0.1578j
line_846_848  0.0273-0.1828j  0.0381-0.1553j 0.0246-0.1646j
line_850_816  0.2215+0.1116j  0.0591+0.0293j 0.0255+0.0112j
line_852r_832 0.6269+0.0468j  0.5699+0.0489j 0.5737+0.0494j
line_854_856  0.0000+0.0000j  0.0021+0.0010j 0.0000+0.0000j
line_854_852  0.0000+0.0000j -0.0000+0.0000j 0.0000+0.0000j
line_858_864  0.0014+0.0007j -0.0000+0.0000j 0.0000+0.0000j
line_858_834  0.4178-0.0597j  0.3915-0.0440j 0.3858-0.0475j
line_860_836  0.0491+0.0283j  0.0809+0.0438j 0.0405+0.0239j
line_862_838  0.0000-0.0000j  0.0169+0.0085j 0.0000+0.0000j
line_888_890  0.1897+0.0974j  0.1693+0.0882j 0.1708+0.0880j
creg1a        0.0000+0.0000j  0.0000-0.0000j 0.0000+0.0000j
creg2a        0.0000+0.0000j  0.0000-0.0000j 0.0000+0.0000j
subxf         0.0000-0.0000j  0.0460+0.0230j 0.0250+0.0140j
xfm1          0.1897+0.0974j  0.1693+0.0882j 0.1708+0.0880j 

COMPARE Stx - DSS RESULTS
                           A              B              C
line_800_802  0.5455+0.1090j 0.5148+0.0540j 0.4656+0.0069j
line_802_806  0.5445+0.1091j 0.4992+0.0466j 0.4526+0.0003j
line_806_808  0.5439+0.1091j 0.4839+0.0392j 0.4398-0.0065j
line_808_810  0.0000+0.0000j 0.0077+0.0026j 0.0000+0.0000j
line_808_812  0.5317+0.1099j 0.4620+0.0342j 0.4337-0.0022j
line_812_814  0.5177+0.1100j 0.4551+0.0363j 0.4264+0.0025j
line_814r_850 0.5064+0.1095j 0.4497+0.0376j 0.4206+0.0058j
line_816_818  0.1404+0.0608j 0.0000+0.0000j 0.0000+0.0000j
line_816_824  0.3658+0.0486j 0.4482+0.0379j 0.4196+0.0048j
line_818_820  0.1258+0.0539j 0.0000+0.0000j 0.0000+0.0000j
line_820_822  0.0545+0.0259j 0.0000+0.0000j 0.0000+0.0000j
line_824_826  0.0000+0.0000j 0.0179+0.0084j 0.0000+0.0000j
line_824_828  0.3631+0.0500j 0.4074+0.0212j 0.4141+0.0035j
line_828_830  0.3600+0.0488j 0.4072+0.0213j 0.4120+0.0027j
line_830_854  0.3387+0.0401j 0.3928+0.0186j 0.3900+0.0014j
line_832_858  0.2274-0.0120j 0.2697-0.0339j 0.2734-0.0559j
line_834_860  0.0757+0.0558j 0.0854+0.0510j 0.0860+0.0341j
line_834_842  0.1249-0.0951j 0.1660-0.0879j 0.1435-0.0981j
line_836_840  0.0113+0.0049j 0.0158+0.0090j 0.0106+0.0104j
line_836_862  0.0000-0.0001j 0.0228+0.0105j 0.0000-0.0001j
line_842_844  0.1215-0.0969j 0.1660-0.0878j 0.1434-0.0980j
line_844_846  0.0154-0.1024j 0.0455-0.0966j 0.0244-0.1064j
line_846_848  0.0153-0.1017j 0.0259-0.1052j 0.0161-0.1102j
line_850_816  0.5064+0.1095j 0.4497+0.0376j 0.4206+0.0058j
line_852r_832 0.3298+0.0445j 0.3793+0.0241j 0.3801+0.0042j
line_854_856  0.0000+0.0000j 0.0017-0.0036j 0.0000+0.0000j
line_854_852  0.3385+0.0402j 0.3891+0.0214j 0.3898+0.0014j
line_858_864  0.0008+0.0001j 0.0000+0.0000j 0.0000+0.0000j
line_858_834  0.2226-0.0145j 0.2644-0.0339j 0.2671-0.0586j
line_860_836  0.0289+0.0126j 0.0542+0.0288j 0.0260+0.0166j
line_862_838  0.0000+0.0000j 0.0114+0.0048j 0.0000+0.0000j
line_888_890  0.1004+0.0522j 0.1076+0.0535j 0.1046+0.0557j 

~~~~~~~~~~~~~~~~~~~~~~~~~~~~~~~~~~~~~~~~~~~~~~~~~~~~~~~~~~~~~~~~~~~~~~~~~~~~~~~~~~~~~~~~~~~~~~~~~~~~ 

COMPARE Srx - SUMMARY STATS
                      A      B      C
MAX |fbs - dss|  0.5553 0.4693 0.4401
SUM |fbs - dss|  6.4086 5.9327 5.7607
MEAN |fbs - dss| 0.2003 0.1854 0.1800 

COMPARE Srx - ERROR, |fbs - dss|:
                A.(fbs - dss)   B.(fbs - dss)   C.(fbs - dss)
creg1a            nan+0.0000j     nan-0.0000j     nan+0.0000j
creg2a            nan+0.0000j     nan-0.0000j     nan+0.0000j
line_800_802  -0.5445-0.1091j -0.4682-0.0311j -0.4401+0.0068j
line_802_806  -0.5439-0.1091j -0.4679-0.0312j -0.4398+0.0065j
line_806_808  -0.5317-0.1099j -0.4615-0.0328j -0.4337+0.0022j
line_808_810   0.0000+0.0000j  0.0002+0.0001j  0.0000+0.0000j
line_808_812  -0.5177-0.1100j -0.4551-0.0363j -0.4264-0.0025j
line_812_814  -0.5064-0.1097j -0.4497-0.0378j -0.4206-0.0059j
line_814r_850 -0.2848+0.0022j -0.3906-0.0083j -0.3951+0.0053j
line_816_818   0.0525+0.0382j  0.0000+0.0000j  0.0000+0.0000j
line_816_824  -0.3345-0.0377j -0.3869-0.0096j -0.3926+0.0051j
line_818_820   0.0459+0.0261j  0.0000+0.0000j  0.0000+0.0000j
line_820_822   0.0203+0.0105j  0.0000+0.0000j  0.0000+0.0000j
line_824_826   0.0000+0.0000j  0.0030+0.0015j  0.0000+0.0000j
line_824_828  -0.3343-0.0378j -0.3926-0.0140j -0.3931+0.0054j
line_828_830  -0.3302-0.0407j -0.3869-0.0155j -0.3876+0.0037j
line_830_854  -0.3385-0.0402j -0.3884-0.0166j -0.3898-0.0014j
line_832_858   0.2044-0.0420j  0.1295-0.0071j  0.1254+0.0142j
line_834_842   0.0990-0.0741j  0.0797-0.0402j  0.0717-0.0468j
line_834_860   0.0681+0.0279j  0.0427+0.0235j  0.0349+0.0376j
line_836_840   0.0070+0.0076j  0.0072+0.0053j  0.0072+0.0014j
line_836_862  -0.0000-0.0000j  0.0110+0.0064j  0.0000+0.0000j
line_842_844   0.0963-0.0759j  0.0796-0.0405j  0.0717-0.0471j
line_844_846   0.0120-0.0812j  0.0216-0.0456j  0.0126-0.0522j
line_846_848   0.0120-0.0813j  0.0122-0.0502j  0.0085-0.0546j
line_850_816  -0.2847+0.0021j -0.3905-0.0083j -0.3950+0.0053j
line_852r_832  0.2970+0.0023j  0.1906+0.0248j  0.1936+0.0452j
line_854_852  -0.3299-0.0446j -0.3794-0.0243j -0.3801-0.0043j
line_854_856   0.0000+0.0000j  0.0003+0.0002j  0.0000+0.0000j
line_858_834   0.1946-0.0467j  0.1268-0.0115j  0.1183+0.0097j
line_858_864   0.0006+0.0003j  0.0000-0.0000j  0.0000+0.0000j
line_860_836   0.0202+0.0151j  0.0267+0.0144j  0.0145+0.0067j
line_862_838   0.0000+0.0000j  0.0055+0.0027j  0.0000+0.0000j
line_888_890   0.0830+0.0407j  0.0581+0.0315j  0.0613+0.0291j
subxf             nan-0.0000j     nan+0.0230j     nan+0.0140j
xfm1              nan+0.0974j     nan+0.0882j     nan+0.0880j 

COMPARE Srx - FBS RESULTS
                           A               B              C
line_800_802  0.0000+0.0000j  0.0460+0.0230j 0.0250+0.0140j
line_802_806  0.0000+0.0000j  0.0310+0.0155j 0.0125+0.0070j
line_806_808  0.0000+0.0000j  0.0160+0.0080j 0.0000+0.0000j
line_808_810  0.0000+0.0000j  0.0080+0.0040j 0.0000+0.0000j
line_808_812  0.0000+0.0000j -0.0000+0.0000j 0.0000+0.0000j
line_812_814  0.0000+0.0000j -0.0000+0.0000j 0.0000+0.0000j
line_814r_850 0.2215+0.1116j  0.0591+0.0293j 0.0255+0.0112j
line_816_818  0.1927+0.0993j  0.0000+0.0000j 0.0000+0.0000j
line_816_824  0.0286+0.0123j  0.0577+0.0287j 0.0242+0.0106j
line_818_820  0.1689+0.0872j  0.0000+0.0000j 0.0000+0.0000j
line_820_822  0.0747+0.0387j  0.0000+0.0000j 0.0000+0.0000j
line_824_826  0.0000+0.0000j  0.0209+0.0105j 0.0000+0.0000j
line_824_828  0.0286+0.0123j  0.0146+0.0073j 0.0207+0.0090j
line_828_830  0.0245+0.0105j  0.0146+0.0073j 0.0186+0.0080j
line_830_854  0.0000+0.0000j  0.0042+0.0021j 0.0000+0.0000j
line_832_858  0.4312-0.0532j  0.3985-0.0403j 0.3981-0.0411j
line_834_860  0.1438+0.0842j  0.1281+0.0749j 0.1209+0.0721j
line_834_842  0.2239-0.1691j  0.2456-0.1280j 0.2151-0.1448j
line_836_840  0.0184+0.0126j  0.0229+0.0145j 0.0178+0.0120j
line_836_862  0.0000-0.0000j  0.0338+0.0169j 0.0000+0.0000j
line_842_844  0.2177-0.1725j  0.2455-0.1281j 0.2150-0.1449j
line_844_846  0.0273-0.1828j  0.0671-0.1414j 0.0369-0.1578j
line_846_848  0.0273-0.1828j  0.0381-0.1553j 0.0246-0.1646j
line_850_816  0.2215+0.1116j  0.0591+0.0293j 0.0255+0.0112j
line_852r_832 0.6269+0.0468j  0.5699+0.0489j 0.5737+0.0493j
line_854_856  0.0000+0.0000j  0.0021+0.0010j 0.0000+0.0000j
line_854_852  0.0000+0.0000j -0.0000+0.0000j 0.0000+0.0000j
line_858_864  0.0014+0.0007j  0.0000-0.0000j 0.0000+0.0000j
line_858_834  0.4166-0.0603j  0.3904-0.0446j 0.3846-0.0481j
line_860_836  0.0491+0.0283j  0.0809+0.0438j 0.0405+0.0239j
line_862_838  0.0000+0.0000j  0.0169+0.0085j 0.0000+0.0000j
line_888_890  0.1760+0.0880j  0.1591+0.0795j 0.1587+0.0794j
creg1a        0.0000+0.0000j  0.0000-0.0000j 0.0000+0.0000j
creg2a        0.0000+0.0000j  0.0000-0.0000j 0.0000+0.0000j
subxf         0.0000-0.0000j  0.0460+0.0230j 0.0250+0.0140j
xfm1          0.1897+0.0974j  0.1693+0.0882j 0.1708+0.0880j 

COMPARE Srx - DSS RESULTS
                           A              B               C
line_800_802  0.5445+0.1091j 0.5142+0.0541j  0.4651+0.0072j
line_802_806  0.5439+0.1091j 0.4988+0.0466j  0.4523+0.0005j
line_806_808  0.5317+0.1099j 0.4775+0.0407j  0.4337-0.0022j
line_808_810  0.0000+0.0000j 0.0077+0.0039j  0.0000+0.0000j
line_808_812  0.5177+0.1100j 0.4551+0.0363j  0.4264+0.0025j
line_812_814  0.5064+0.1097j 0.4497+0.0378j  0.4206+0.0059j
line_814r_850 0.5064+0.1095j 0.4497+0.0376j  0.4206+0.0058j
line_816_818  0.1402+0.0611j 0.0000+0.0000j  0.0000+0.0000j
line_816_824  0.3631+0.0500j 0.4447+0.0383j  0.4167+0.0055j
line_818_820  0.1230+0.0611j 0.0000+0.0000j  0.0000+0.0000j
line_820_822  0.0544+0.0282j 0.0000+0.0000j  0.0000+0.0000j
line_824_826  0.0000+0.0000j 0.0179+0.0090j  0.0000+0.0000j
line_824_828  0.3629+0.0501j 0.4072+0.0213j  0.4138+0.0036j
line_828_830  0.3546+0.0512j 0.4015+0.0229j  0.4062+0.0043j
line_830_854  0.3385+0.0402j 0.3926+0.0187j  0.3898+0.0014j
line_832_858  0.2268-0.0112j 0.2690-0.0332j  0.2727-0.0553j
line_834_860  0.0757+0.0562j 0.0853+0.0514j  0.0860+0.0345j
line_834_842  0.1249-0.0950j 0.1660-0.0878j  0.1434-0.0980j
line_836_840  0.0113+0.0051j 0.0158+0.0092j  0.0106+0.0106j
line_836_862  0.0000+0.0000j 0.0228+0.0105j -0.0000-0.0000j
line_842_844  0.1214-0.0967j 0.1659-0.0876j  0.1434-0.0978j
line_844_846  0.0153-0.1017j 0.0455-0.0958j  0.0243-0.1056j
line_846_848  0.0153-0.1016j 0.0259-0.1051j  0.0161-0.1100j
line_850_816  0.5062+0.1095j 0.4496+0.0377j  0.4205+0.0059j
line_852r_832 0.3298+0.0445j 0.3793+0.0241j  0.3801+0.0042j
line_854_856  0.0000+0.0000j 0.0017+0.0009j  0.0000+0.0000j
line_854_852  0.3299+0.0446j 0.3794+0.0243j  0.3801+0.0043j
line_858_864  0.0008+0.0004j 0.0000+0.0000j  0.0000+0.0000j
line_858_834  0.2220-0.0136j 0.2636-0.0331j  0.2663-0.0578j
line_860_836  0.0289+0.0131j 0.0542+0.0294j  0.0260+0.0172j
line_862_838  0.0000+0.0000j 0.0114+0.0057j  0.0000+0.0000j
line_888_890  0.0930+0.0473j 0.1010+0.0481j  0.0974+0.0503j 

~~~~~~~~~~~~~~~~~~~~~~~~~~~~~~~~~~~~~~~~~~~~~~~~~~~~~~~~~~~~~~~~~~~~~~~~~~~~~~~~~~~~~~~~~~~~~~~~~~~~ 

TOTAL NOMINAL NODE POWERS (kW/kVAR) - SUMMARY STATS
                      A      B      C
MAX |fbs - dss|  0.0000 0.0000 0.0000
SUM |fbs - dss|  0.0000 0.0000 0.0000
MEAN |fbs - dss| 0.0000 0.0000 0.0000 

TOTAL NOMINAL NODE POWERS (kW/kVAR) - ERROR, |fbs - dss|:
            A.(fbs - dss)   B.(fbs - dss)   C.(fbs - dss)
sourcebus  0.0000+0.0000j  0.0000+0.0000j  0.0000+0.0000j
800        0.0000+0.0000j  0.0000+0.0000j  0.0000+0.0000j
802        0.0000+0.0000j  0.0000+0.0000j  0.0000+0.0000j
806        0.0000+0.0000j  0.0000+0.0000j  0.0000+0.0000j
808        0.0000+0.0000j  0.0000+0.0000j  0.0000+0.0000j
810        0.0000+0.0000j  0.0000+0.0000j  0.0000+0.0000j
812        0.0000+0.0000j  0.0000+0.0000j  0.0000+0.0000j
814        0.0000+0.0000j  0.0000+0.0000j  0.0000+0.0000j
814r       0.0000+0.0000j  0.0000+0.0000j  0.0000+0.0000j
850        0.0000+0.0000j  0.0000+0.0000j  0.0000+0.0000j
816        0.0000+0.0000j  0.0000+0.0000j  0.0000+0.0000j
818        0.0000+0.0000j  0.0000+0.0000j  0.0000+0.0000j
824        0.0000+0.0000j  0.0000+0.0000j  0.0000+0.0000j
820        0.0000+0.0000j  0.0000+0.0000j  0.0000+0.0000j
822        0.0000+0.0000j  0.0000+0.0000j  0.0000+0.0000j
826        0.0000+0.0000j  0.0000+0.0000j  0.0000+0.0000j
828        0.0000+0.0000j  0.0000+0.0000j  0.0000+0.0000j
830        0.0000+0.0000j  0.0000+0.0000j  0.0000+0.0000j
854        0.0000+0.0000j  0.0000+0.0000j  0.0000+0.0000j
832        0.0000+0.0000j  0.0000+0.0000j  0.0000+0.0000j
858        0.0000+0.0000j  0.0000+0.0000j  0.0000+0.0000j
834        0.0000+0.0000j  0.0000+0.0000j  0.0000+0.0000j
860        0.0000+0.0000j  0.0000+0.0000j  0.0000+0.0000j
842        0.0000+0.0000j  0.0000+0.0000j  0.0000+0.0000j
836        0.0000+0.0000j -0.0000-0.0000j  0.0000-0.0000j
840       -0.0000+0.0000j -0.0000+0.0000j -0.0000+0.0000j
862        0.0000+0.0000j  0.0000+0.0000j  0.0000+0.0000j
844        0.0000+0.0000j  0.0000+0.0000j  0.0000+0.0000j
846        0.0000+0.0000j  0.0000+0.0000j  0.0000+0.0000j
848        0.0000+0.0000j  0.0000+0.0000j  0.0000+0.0000j
852r       0.0000+0.0000j  0.0000+0.0000j  0.0000+0.0000j
888        0.0000+0.0000j  0.0000+0.0000j  0.0000+0.0000j
856        0.0000+0.0000j  0.0000+0.0000j  0.0000+0.0000j
852        0.0000+0.0000j  0.0000+0.0000j  0.0000+0.0000j
864        0.0000+0.0000j  0.0000+0.0000j  0.0000+0.0000j
838        0.0000+0.0000j  0.0000+0.0000j  0.0000+0.0000j
890        0.0000+0.0000j  0.0000+0.0000j  0.0000+0.0000j 

TOTAL NOMINAL NODE POWERS (kW/kVAR) - FBS RESULTS
                          A                 B                 C
sourcebus    0.0000+0.0000j    0.0000+0.0000j    0.0000+0.0000j
800          0.0000+0.0000j    0.0000+0.0000j    0.0000+0.0000j
802          0.0000+0.0000j   15.0000+7.5000j   12.5000+7.0000j
806          0.0000+0.0000j   15.0000+7.5000j   12.5000+7.0000j
808          0.0000+0.0000j    8.0000+4.0000j    0.0000+0.0000j
810          0.0000+0.0000j    8.0000+4.0000j    0.0000+0.0000j
812          0.0000+0.0000j    0.0000+0.0000j    0.0000+0.0000j
814          0.0000+0.0000j    0.0000+0.0000j    0.0000+0.0000j
814r         0.0000+0.0000j    0.0000+0.0000j    0.0000+0.0000j
850          0.0000+0.0000j    0.0000+0.0000j    0.0000+0.0000j
816          0.0000+0.0000j    1.2500+0.5000j    1.2500+0.5000j
818         17.0000+8.5000j    0.0000+0.0000j    0.0000+0.0000j
824          0.0000+0.0000j  21.2500+10.5000j    3.2500+1.5000j
820        84.5000+43.5000j    0.0000+0.0000j    0.0000+0.0000j
822        67.5000+35.0000j    0.0000+0.0000j    0.0000+0.0000j
826          0.0000+0.0000j  20.0000+10.0000j    0.0000+0.0000j
828          3.5000+1.5000j    0.0000+0.0000j    2.0000+1.0000j
830         21.0000+9.0000j   10.0000+5.0000j   17.5000+7.5000j
854          0.0000+0.0000j    2.0000+1.0000j    0.0000+0.0000j
832          3.5000+1.5000j    1.0000+0.5000j    3.0000+1.5000j
858          8.7500+4.2500j    5.7500+3.0000j   10.0000+5.2500j
834        35.7500+18.0000j   13.7500+7.0000j  39.5000+20.0000j
860        69.5000+41.0000j  39.0000+25.7500j  65.5000+39.2500j
842          4.5000+2.5000j    0.0000+0.0000j    0.0000+0.0000j
836        22.5000+11.5000j  20.0000+10.2500j   18.5000+9.7500j
840         13.5000+9.2500j  19.0000+12.0000j   14.5000+9.7500j
862          0.0000+0.0000j   14.0000+7.0000j    0.0000+0.0000j
844        139.5000+7.5000j 147.5000+11.0000j 145.0000+10.5000j
846          0.0000+0.0000j  24.0000+11.5000j   10.0000+5.5000j
848       20.0000-134.0000j 31.5000-128.5000j 20.0000-134.0000j
852r         0.0000+0.0000j    0.0000+0.0000j    0.0000+0.0000j
888          0.0000+0.0000j    0.0000+0.0000j    0.0000+0.0000j
856          0.0000+0.0000j    2.0000+1.0000j    0.0000+0.0000j
852          0.0000+0.0000j    0.0000+0.0000j    0.0000+0.0000j
864          1.0000+0.5000j    0.0000+0.0000j    0.0000+0.0000j
838          0.0000+0.0000j   14.0000+7.0000j    0.0000+0.0000j
890       150.0000+75.0000j 150.0000+75.0000j 150.0000+75.0000j 

TOTAL NOMINAL NODE POWERS (kW/kVAR) - DSS RESULTS
                          A                 B                 C
sourcebus    0.0000+0.0000j    0.0000+0.0000j    0.0000+0.0000j
800          0.0000+0.0000j    0.0000+0.0000j    0.0000+0.0000j
802          0.0000+0.0000j   15.0000+7.5000j   12.5000+7.0000j
806          0.0000+0.0000j   15.0000+7.5000j   12.5000+7.0000j
808          0.0000+0.0000j    8.0000+4.0000j    0.0000+0.0000j
810          0.0000+0.0000j    8.0000+4.0000j    0.0000+0.0000j
812          0.0000+0.0000j    0.0000+0.0000j    0.0000+0.0000j
814          0.0000+0.0000j    0.0000+0.0000j    0.0000+0.0000j
814r         0.0000+0.0000j    0.0000+0.0000j    0.0000+0.0000j
850          0.0000+0.0000j    0.0000+0.0000j    0.0000+0.0000j
816          0.0000+0.0000j    1.2500+0.5000j    1.2500+0.5000j
818         17.0000+8.5000j    0.0000+0.0000j    0.0000+0.0000j
824          0.0000+0.0000j  21.2500+10.5000j    3.2500+1.5000j
820        84.5000+43.5000j    0.0000+0.0000j    0.0000+0.0000j
822        67.5000+35.0000j    0.0000+0.0000j    0.0000+0.0000j
826          0.0000+0.0000j  20.0000+10.0000j    0.0000+0.0000j
828          3.5000+1.5000j    0.0000+0.0000j    2.0000+1.0000j
830         21.0000+9.0000j   10.0000+5.0000j   17.5000+7.5000j
854          0.0000+0.0000j    2.0000+1.0000j    0.0000+0.0000j
832          3.5000+1.5000j    1.0000+0.5000j    3.0000+1.5000j
858          8.7500+4.2500j    5.7500+3.0000j   10.0000+5.2500j
834        35.7500+18.0000j   13.7500+7.0000j  39.5000+20.0000j
860        69.5000+41.0000j  39.0000+25.7500j  65.5000+39.2500j
842          4.5000+2.5000j    0.0000+0.0000j    0.0000+0.0000j
836        22.5000+11.5000j  20.0000+10.2500j   18.5000+9.7500j
840         13.5000+9.2500j  19.0000+12.0000j   14.5000+9.7500j
862          0.0000+0.0000j   14.0000+7.0000j    0.0000+0.0000j
844        139.5000+7.5000j 147.5000+11.0000j 145.0000+10.5000j
846          0.0000+0.0000j  24.0000+11.5000j   10.0000+5.5000j
848       20.0000-134.0000j 31.5000-128.5000j 20.0000-134.0000j
852r         0.0000+0.0000j    0.0000+0.0000j    0.0000+0.0000j
888          0.0000+0.0000j    0.0000+0.0000j    0.0000+0.0000j
856          0.0000+0.0000j    2.0000+1.0000j    0.0000+0.0000j
852          0.0000+0.0000j    0.0000+0.0000j    0.0000+0.0000j
864          1.0000+0.5000j    0.0000+0.0000j    0.0000+0.0000j
838          0.0000+0.0000j   14.0000+7.0000j    0.0000+0.0000j
890       150.0000+75.0000j 150.0000+75.0000j 150.0000+75.0000j 

~~~~~~~~~~~~~~~~~~~~~~~~~~~~~~~~~~~~~~~~~~~~~~~~~~~~~~~~~~~~~~~~~~~~~~~~~~~~~~~~~~~~~~~~~~~~~~~~~~~~ 

Total node power comparison, from dss.CktElement.Powers()
TOTAL NODE POWERS (kW/kVAR) - SUMMARY STATS
                        A        B        C
MAX |fbs - dss|   92.4512  66.0863  67.8652
SUM |fbs - dss|  459.9604 257.2624 301.4773
MEAN |fbs - dss|  12.4314   6.9530   8.1480 

TOTAL NODE POWERS (kW/kVAR) - ERROR, |fbs - dss|:
             A.(fbs - dss)    B.(fbs - dss)    C.(fbs - dss)
sourcebus   0.0000+0.0000j   0.0000+0.0000j   0.0000+0.0000j
800         0.0000+0.0000j   0.0000+0.0000j   0.0000+0.0000j
802         0.0000+0.0000j   0.0322+0.0161j   0.0279+0.0156j
806         0.0000+0.0000j   0.0537+0.0269j   0.0465+0.0261j
808         0.0000+0.0000j   0.2412+0.1206j   0.0000+0.0000j
810         0.0000+0.0000j   0.2411+0.1205j   0.0000+0.0000j
812         0.0000+0.0000j   0.0000+0.0000j   0.0000+0.0000j
814         0.0000+0.0000j   0.0000+0.0000j   0.0000+0.0000j
814r        0.0000+0.0000j   0.0000+0.0000j   0.0000+0.0000j
850         0.0000+0.0000j   0.0000+0.0000j   0.0000+0.0000j
816         0.0000+0.0000j  -0.0873+0.7327j   0.4626-0.5826j
818         5.4016+2.7008j   0.0000+0.0000j   0.0000+0.0000j
824         0.0000+0.0000j   2.8986+2.2122j   0.8036-0.4016j
820       25.5388+13.1472j   0.0000+0.0000j   0.0000+0.0000j
822       20.2746+10.5127j   0.0000+0.0000j   0.0000+0.0000j
826         0.0000+0.0000j   2.9661+1.4831j   0.0000+0.0000j
828         1.1588+0.4966j   0.0000+0.0000j   0.3317+0.1659j
830        3.1240+11.4016j   1.7134+1.0157j   7.7242-6.9137j
854         0.0000+0.0000j   0.3499+0.1750j   0.0000+0.0000j
832         4.8236+2.0672j   1.2211+0.6105j   3.7232+1.8616j
858         6.7946+5.5956j   2.3738+2.9400j   8.5446+0.2085j
834       11.9220+26.5515j   4.4119+4.6748j  27.1913-9.2343j
860       28.6611+46.4345j  16.0131+8.5293j  39.6622-3.9142j
842         2.7189+1.5105j   0.0000+0.0000j   0.0000+0.0000j
836        7.6700+16.7826j   8.5325+2.4493j  12.7220-4.3115j
840         7.0490+7.5515j   7.1740+5.3096j   7.2306+1.3735j
862         0.0000+0.0000j   5.4974+2.7487j   0.0000+0.0000j
844        84.2511+4.5296j  57.9633+4.3227j  59.0529+4.2763j
846         0.0000+0.0000j   9.4305+4.5188j   4.0740+2.2407j
848       11.9591-81.2827j 12.1822-50.2210j  8.4854-54.5605j
852r        0.0000+0.0000j   0.0000+0.0000j   0.0000+0.0000j
888         0.0000+0.0000j   0.0000+0.0000j   0.0000+0.0000j
856         0.0000+0.0000j   0.3495+0.1748j   0.0000+0.0000j
852         0.0000+0.0000j   0.0000+0.0000j   0.0000+0.0000j
864         0.6075+0.3037j   0.0000+0.0000j   0.0000+0.0000j
838         0.0000+0.0000j   5.4955+2.7478j   0.0000+0.0000j
890       83.0006+40.7201j 58.1205+31.4548j 61.3325+29.0519j 

TOTAL NODE POWERS (kW/kVAR) - FBS RESULTS
                          A                 B                 C
sourcebus    0.0000+0.0000j    0.0000+0.0000j    0.0000+0.0000j
800          0.0000+0.0000j    0.0000+0.0000j    0.0000+0.0000j
802          0.0000+0.0000j   14.9934+7.4967j   12.4984+6.9991j
806          0.0000+0.0000j   14.9904+7.4952j   12.4980+6.9989j
808          0.0000+0.0000j    7.9798+3.9899j    0.0000+0.0000j
810          0.0000+0.0000j    7.9773+3.9887j    0.0000+0.0000j
812          0.0000+0.0000j    0.0000+0.0000j    0.0000+0.0000j
814          0.0000+0.0000j    0.0000+0.0000j    0.0000+0.0000j
814r         0.0000+0.0000j    0.0000+0.0000j    0.0000+0.0000j
850          0.0000+0.0000j    0.0000+0.0000j    0.0000+0.0000j
816          0.0000+0.0000j    1.3100+0.5240j    1.3297+0.5319j
818         19.8301+9.9151j    0.0000+0.0000j    0.0000+0.0000j
824          0.0000+0.0000j  22.2154+10.9770j    3.4554+1.5948j
820        94.0216+48.4016j    0.0000+0.0000j    0.0000+0.0000j
822        74.6523+38.7086j    0.0000+0.0000j    0.0000+0.0000j
826          0.0000+0.0000j  20.9004+10.4502j    0.0000+0.0000j
828          4.0855+1.7509j    0.0000+0.0000j    2.1263+1.0631j
830        24.4718+10.4879j   10.4449+5.2224j   18.5774+7.9617j
854          0.0000+0.0000j    2.0890+1.0445j    0.0000+0.0000j
832          4.8236+2.0672j    1.2211+0.6105j    3.7232+1.8616j
858         12.0027+5.8299j    6.9907+3.6473j   12.3513+6.4844j
834        48.7783+24.5597j   16.6317+8.4670j  48.5226+24.5684j
860        94.7426+55.8913j  47.1361+31.1219j  80.3963+48.1764j
842          6.1393+3.4107j    0.0000+0.0000j    0.0000+0.0000j
836        30.6588+15.6701j  24.1541+12.3790j  22.7013+11.9642j
840        18.3944+12.6035j  22.9448+14.4915j  17.7920+11.9636j
862          0.0000+0.0000j   16.9072+8.4536j    0.0000+0.0000j
844       190.2379+10.2278j 178.2775+13.2953j 178.0201+12.8911j
846          0.0000+0.0000j  29.0055+13.8985j   12.2831+6.7557j
848       27.2903-182.8452j 38.0716-155.3081j 24.5683-164.6075j
852r         0.0000+0.0000j    0.0000+0.0000j    0.0000+0.0000j
888          0.0000+0.0000j    0.0000+0.0000j    0.0000+0.0000j
856          0.0000+0.0000j    2.0883+1.0442j    0.0000+0.0000j
852          0.0000+0.0000j    0.0000+0.0000j    0.0000+0.0000j
864          1.3717+0.6859j    0.0000+0.0000j    0.0000+0.0000j
838          0.0000+0.0000j   16.9017+8.4508j    0.0000+0.0000j
890       176.0426+88.0213j 159.0980+79.5490j 158.7176+79.3588j 

TOTAL NODE POWERS (kW/kVAR) - DSS RESULTS
                          A                 B                 C
sourcebus    0.0000+0.0000j    0.0000+0.0000j    0.0000+0.0000j
800          0.0000+0.0000j    0.0000+0.0000j    0.0000+0.0000j
802          0.0000+0.0000j   14.9611+7.4806j   12.4705+6.9835j
806          0.0000+0.0000j   14.9366+7.4683j   12.4514+6.9728j
808          0.0000+0.0000j    7.7385+3.8693j    0.0000+0.0000j
810          0.0000+0.0000j    7.7363+3.8681j    0.0000+0.0000j
812          0.0000+0.0000j    0.0000+0.0000j    0.0000+0.0000j
814          0.0000+0.0000j    0.0000+0.0000j    0.0000+0.0000j
814r         0.0000+0.0000j    0.0000+0.0000j    0.0000+0.0000j
850          0.0000+0.0000j    0.0000+0.0000j    0.0000+0.0000j
816          0.0000+0.0000j    1.3973-0.2087j    0.8671+1.1145j
818         14.4285+7.2143j    0.0000+0.0000j    0.0000+0.0000j
824          0.0000+0.0000j   19.3167+8.7648j    2.6518+1.9964j
820        68.4827+35.2544j    0.0000+0.0000j    0.0000+0.0000j
822        54.3777+28.1959j    0.0000+0.0000j    0.0000+0.0000j
826          0.0000+0.0000j   17.9342+8.9671j    0.0000+0.0000j
828          2.9267+1.2543j    0.0000+0.0000j    1.7946+0.8973j
830         21.3479-0.9136j    8.7314+4.2067j  10.8532+14.8754j
854          0.0000+0.0000j    1.7390+0.8695j    0.0000+0.0000j
832          0.0000+0.0000j    0.0000+0.0000j    0.0000+0.0000j
858          5.2082+0.2343j    4.6169+0.7073j    3.8067+6.2760j
834         36.8563-1.9918j   12.2198+3.7922j  21.3313+33.8027j
860         66.0815+9.4569j  31.1230+22.5926j  40.7341+52.0907j
842          3.4204+1.9002j    0.0000+0.0000j    0.0000+0.0000j
836         22.9888-1.1125j   15.6216+9.9296j   9.9793+16.2757j
840         11.3454+5.0521j   15.7708+9.1819j  10.5614+10.5901j
862          0.0000+0.0000j   11.4098+5.7049j    0.0000+0.0000j
844        105.9868+5.6982j  120.3142+8.9726j  118.9672+8.6148j
846          0.0000+0.0000j   19.5750+9.3797j    8.2091+4.5150j
848       15.3312-101.5625j 25.8894-105.0871j 16.0829-110.0470j
852r         0.0000+0.0000j    0.0000+0.0000j    0.0000+0.0000j
888          0.0000+0.0000j    0.0000+0.0000j    0.0000+0.0000j
856          0.0000+0.0000j    1.7388+0.8694j    0.0000+0.0000j
852          0.0000+0.0000j    0.0000+0.0000j    0.0000+0.0000j
864          0.7643+0.3821j    0.0000+0.0000j    0.0000+0.0000j
838          0.0000+0.0000j   11.4062+5.7031j    0.0000+0.0000j
890        93.0420+47.3012j 100.9775+48.0942j  97.3851+50.3069j 

~~~~~~~~~~~~~~~~~~~~~~~~~~~~~~~~~~~~~~~~~~~~~~~~~~~~~~~~~~~~~~~~~~~~~~~~~~~~~~~~~~~~~~~~~~~~~~~~~~~~ 

Total node power comparison, from dss.CktElement.Powers()
TOTAL NODE POWERS(pu) - SUMMARY STATS
                      A      B      C
MAX |fbs - dss|  0.0925 0.0661 0.0679
SUM |fbs - dss|  0.4600 0.2573 0.3015
MEAN |fbs - dss| 0.0124 0.0070 0.0081 

TOTAL NODE POWERS(pu) - ERROR, |fbs - dss|:
           A.(fbs - dss)   B.(fbs - dss)  C.(fbs - dss)
sourcebus 0.0000+0.0000j  0.0000+0.0000j 0.0000+0.0000j
800       0.0000+0.0000j  0.0000+0.0000j 0.0000+0.0000j
802       0.0000+0.0000j  0.0000+0.0000j 0.0000+0.0000j
806       0.0000+0.0000j  0.0001+0.0000j 0.0000+0.0000j
808       0.0000+0.0000j  0.0002+0.0001j 0.0000+0.0000j
810       0.0000+0.0000j  0.0002+0.0001j 0.0000+0.0000j
812       0.0000+0.0000j  0.0000+0.0000j 0.0000+0.0000j
814       0.0000+0.0000j  0.0000+0.0000j 0.0000+0.0000j
814r      0.0000+0.0000j  0.0000+0.0000j 0.0000+0.0000j
850       0.0000+0.0000j  0.0000+0.0000j 0.0000+0.0000j
816       0.0000+0.0000j -0.0001+0.0007j 0.0005-0.0006j
818       0.0054+0.0027j  0.0000+0.0000j 0.0000+0.0000j
824       0.0000+0.0000j  0.0029+0.0022j 0.0008-0.0004j
820       0.0255+0.0131j  0.0000+0.0000j 0.0000+0.0000j
822       0.0203+0.0105j  0.0000+0.0000j 0.0000+0.0000j
826       0.0000+0.0000j  0.0030+0.0015j 0.0000+0.0000j
828       0.0012+0.0005j  0.0000+0.0000j 0.0003+0.0002j
830       0.0031+0.0114j  0.0017+0.0010j 0.0077-0.0069j
854       0.0000+0.0000j  0.0003+0.0002j 0.0000+0.0000j
832       0.0048+0.0021j  0.0012+0.0006j 0.0037+0.0019j
858       0.0068+0.0056j  0.0024+0.0029j 0.0085+0.0002j
834       0.0119+0.0266j  0.0044+0.0047j 0.0272-0.0092j
860       0.0287+0.0464j  0.0160+0.0085j 0.0397-0.0039j
842       0.0027+0.0015j  0.0000+0.0000j 0.0000+0.0000j
836       0.0077+0.0168j  0.0085+0.0024j 0.0127-0.0043j
840       0.0070+0.0076j  0.0072+0.0053j 0.0072+0.0014j
862       0.0000+0.0000j  0.0055+0.0027j 0.0000+0.0000j
844       0.0843+0.0045j  0.0580+0.0043j 0.0591+0.0043j
846       0.0000+0.0000j  0.0094+0.0045j 0.0041+0.0022j
848       0.0120-0.0813j  0.0122-0.0502j 0.0085-0.0546j
852r      0.0000+0.0000j  0.0000+0.0000j 0.0000+0.0000j
888       0.0000+0.0000j  0.0000+0.0000j 0.0000+0.0000j
856       0.0000+0.0000j  0.0003+0.0002j 0.0000+0.0000j
852       0.0000+0.0000j  0.0000+0.0000j 0.0000+0.0000j
864       0.0006+0.0003j  0.0000+0.0000j 0.0000+0.0000j
838       0.0000+0.0000j  0.0055+0.0027j 0.0000+0.0000j
890       0.0830+0.0407j  0.0581+0.0315j 0.0613+0.0291j 

TOTAL NODE POWERS(pu) - FBS RESULTS
                       A              B              C
sourcebus 0.0000+0.0000j 0.0000+0.0000j 0.0000+0.0000j
800       0.0000+0.0000j 0.0000+0.0000j 0.0000+0.0000j
802       0.0000+0.0000j 0.0150+0.0075j 0.0125+0.0070j
806       0.0000+0.0000j 0.0150+0.0075j 0.0125+0.0070j
808       0.0000+0.0000j 0.0080+0.0040j 0.0000+0.0000j
810       0.0000+0.0000j 0.0080+0.0040j 0.0000+0.0000j
812       0.0000+0.0000j 0.0000+0.0000j 0.0000+0.0000j
814       0.0000+0.0000j 0.0000+0.0000j 0.0000+0.0000j
814r      0.0000+0.0000j 0.0000+0.0000j 0.0000+0.0000j
850       0.0000+0.0000j 0.0000+0.0000j 0.0000+0.0000j
816       0.0000+0.0000j 0.0013+0.0005j 0.0013+0.0005j
818       0.0198+0.0099j 0.0000+0.0000j 0.0000+0.0000j
824       0.0000+0.0000j 0.0222+0.0110j 0.0035+0.0016j
820       0.0940+0.0484j 0.0000+0.0000j 0.0000+0.0000j
822       0.0747+0.0387j 0.0000+0.0000j 0.0000+0.0000j
826       0.0000+0.0000j 0.0209+0.0105j 0.0000+0.0000j
828       0.0041+0.0018j 0.0000+0.0000j 0.0021+0.0011j
830       0.0245+0.0105j 0.0104+0.0052j 0.0186+0.0080j
854       0.0000+0.0000j 0.0021+0.0010j 0.0000+0.0000j
832       0.0048+0.0021j 0.0012+0.0006j 0.0037+0.0019j
858       0.0120+0.0058j 0.0070+0.0036j 0.0124+0.0065j
834       0.0488+0.0246j 0.0166+0.0085j 0.0485+0.0246j
860       0.0947+0.0559j 0.0471+0.0311j 0.0804+0.0482j
842       0.0061+0.0034j 0.0000+0.0000j 0.0000+0.0000j
836       0.0307+0.0157j 0.0242+0.0124j 0.0227+0.0120j
840       0.0184+0.0126j 0.0229+0.0145j 0.0178+0.0120j
862       0.0000+0.0000j 0.0169+0.0085j 0.0000+0.0000j
844       0.1902+0.0102j 0.1783+0.0133j 0.1780+0.0129j
846       0.0000+0.0000j 0.0290+0.0139j 0.0123+0.0068j
848       0.0273-0.1828j 0.0381-0.1553j 0.0246-0.1646j
852r      0.0000+0.0000j 0.0000+0.0000j 0.0000+0.0000j
888       0.0000+0.0000j 0.0000+0.0000j 0.0000+0.0000j
856       0.0000+0.0000j 0.0021+0.0010j 0.0000+0.0000j
852       0.0000+0.0000j 0.0000+0.0000j 0.0000+0.0000j
864       0.0014+0.0007j 0.0000+0.0000j 0.0000+0.0000j
838       0.0000+0.0000j 0.0169+0.0085j 0.0000+0.0000j
890       0.1760+0.0880j 0.1591+0.0795j 0.1587+0.0794j 

TOTAL NODE POWERS(pu) - DSS RESULTS
                       A              B              C
sourcebus 0.0000+0.0000j 0.0000+0.0000j 0.0000+0.0000j
800       0.0000+0.0000j 0.0000+0.0000j 0.0000+0.0000j
802       0.0000+0.0000j 0.0150+0.0075j 0.0125+0.0070j
806       0.0000+0.0000j 0.0149+0.0075j 0.0125+0.0070j
808       0.0000+0.0000j 0.0077+0.0039j 0.0000+0.0000j
810       0.0000+0.0000j 0.0077+0.0039j 0.0000+0.0000j
812       0.0000+0.0000j 0.0000+0.0000j 0.0000+0.0000j
814       0.0000+0.0000j 0.0000+0.0000j 0.0000+0.0000j
814r      0.0000+0.0000j 0.0000+0.0000j 0.0000+0.0000j
850       0.0000+0.0000j 0.0000+0.0000j 0.0000+0.0000j
816       0.0000+0.0000j 0.0014-0.0002j 0.0009+0.0011j
818       0.0144+0.0072j 0.0000+0.0000j 0.0000+0.0000j
824       0.0000+0.0000j 0.0193+0.0088j 0.0027+0.0020j
820       0.0685+0.0353j 0.0000+0.0000j 0.0000+0.0000j
822       0.0544+0.0282j 0.0000+0.0000j 0.0000+0.0000j
826       0.0000+0.0000j 0.0179+0.0090j 0.0000+0.0000j
828       0.0029+0.0013j 0.0000+0.0000j 0.0018+0.0009j
830       0.0213-0.0009j 0.0087+0.0042j 0.0109+0.0149j
854       0.0000+0.0000j 0.0017+0.0009j 0.0000+0.0000j
832       0.0000+0.0000j 0.0000+0.0000j 0.0000+0.0000j
858       0.0052+0.0002j 0.0046+0.0007j 0.0038+0.0063j
834       0.0369-0.0020j 0.0122+0.0038j 0.0213+0.0338j
860       0.0661+0.0095j 0.0311+0.0226j 0.0407+0.0521j
842       0.0034+0.0019j 0.0000+0.0000j 0.0000+0.0000j
836       0.0230-0.0011j 0.0156+0.0099j 0.0100+0.0163j
840       0.0113+0.0051j 0.0158+0.0092j 0.0106+0.0106j
862       0.0000+0.0000j 0.0114+0.0057j 0.0000+0.0000j
844       0.1060+0.0057j 0.1203+0.0090j 0.1190+0.0086j
846       0.0000+0.0000j 0.0196+0.0094j 0.0082+0.0045j
848       0.0153-0.1016j 0.0259-0.1051j 0.0161-0.1100j
852r      0.0000+0.0000j 0.0000+0.0000j 0.0000+0.0000j
888       0.0000+0.0000j 0.0000+0.0000j 0.0000+0.0000j
856       0.0000+0.0000j 0.0017+0.0009j 0.0000+0.0000j
852       0.0000+0.0000j 0.0000+0.0000j 0.0000+0.0000j
864       0.0008+0.0004j 0.0000+0.0000j 0.0000+0.0000j
838       0.0000+0.0000j 0.0114+0.0057j 0.0000+0.0000j
890       0.0930+0.0473j 0.1010+0.0481j 0.0974+0.0503j 

~~~~~~~~~~~~~~~~~~~~~~~~~~~~~~~~~~~~~~~~~~~~~~~~~~~~~~~~~~~~~~~~~~~~~~~~~~~~~~~~~~~~~~~~~~~~~~~~~~~~ 

Total node power comparison, from opendss voltage solution
TOTAL NODE POWERS (kW/kVAR) - SUMMARY STATS
                        A        B        C
MAX |fbs - dss|   94.4220  65.5852  66.2144
SUM |fbs - dss|  437.6826 253.9178 260.9065
MEAN |fbs - dss|  11.8293   6.8626   7.0515 

TOTAL NODE POWERS (kW/kVAR) - ERROR, |fbs - dss|:
             A.(fbs - dss)    B.(fbs - dss)    C.(fbs - dss)
sourcebus   0.0000+0.0000j   0.0000+0.0000j   0.0000+0.0000j
800         0.0000+0.0000j   0.0000+0.0000j   0.0000+0.0000j
802         0.0000+0.0000j   0.0323+0.0161j   0.0279+0.0156j
806         0.0000+0.0000j   0.0538+0.0269j   0.0466+0.0261j
808         0.0000+0.0000j   0.2413+0.1206j   0.0000+0.0000j
810         0.0000+0.0000j   0.2411+0.1206j   0.0000+0.0000j
812         0.0000+0.0000j   0.0000+0.0000j   0.0000+0.0000j
814         0.0000+0.0000j   0.0000+0.0000j   0.0000+0.0000j
814r        0.0000+0.0000j   0.0000+0.0000j   0.0000+0.0000j
850         0.0000+0.0000j   0.0000+0.0000j   0.0000+0.0000j
816         0.0000+0.0000j   0.1701+0.0681j   0.1911+0.0765j
818         5.4017+2.7008j   0.0000+0.0000j   0.0000+0.0000j
824         0.0000+0.0000j   3.1529+1.5579j   0.5359+0.2473j
820       25.5390+13.1473j   0.0000+0.0000j   0.0000+0.0000j
822       20.2747+10.5128j   0.0000+0.0000j   0.0000+0.0000j
826         0.0000+0.0000j   2.9662+1.4831j   0.0000+0.0000j
828         1.1588+0.4966j   0.0000+0.0000j   0.3317+0.1659j
830         7.4440+3.1903j   1.7433+0.8716j   3.3171+1.4216j
854         0.0000+0.0000j   0.3499+0.1750j   0.0000+0.0000j
832         2.1363+0.9155j   0.3964+0.1982j   1.2379+0.6190j
858         5.3155+2.5818j   2.2708+1.1848j   4.1021+2.1536j
834       21.6024+10.8767j   5.4071+2.7527j  16.0973+8.1505j
860       41.9577+24.7520j 15.3266+10.1195j 26.6676+15.9802j
842         2.7189+1.5105j   0.0000+0.0000j   0.0000+0.0000j
836        13.5773+6.9395j   7.8538+4.0251j   7.5302+3.9686j
840         8.1460+5.5815j   7.4605+4.7119j   5.9018+3.9685j
862         0.0000+0.0000j   5.4974+2.7487j   0.0000+0.0000j
844        84.2511+4.5296j  57.9634+4.3227j  59.0529+4.2762j
846         0.0000+0.0000j   9.4306+4.5188j   4.0740+2.2407j
848       12.0870-80.9831j 12.3783-50.4957j  8.1486-54.5957j
852r        0.0000+0.0000j   0.0000+0.0000j   0.0000+0.0000j
888         0.0000+0.0000j   0.0000+0.0000j   0.0000+0.0000j
856         0.0000+0.0000j   0.3495+0.1748j   0.0000+0.0000j
852         0.0000+0.0000j   0.0000+0.0000j   0.0000+0.0000j
864         0.6075+0.3037j   0.0000+0.0000j   0.0000+0.0000j
838         0.0000+0.0000j   5.4955+2.7478j   0.0000+0.0000j
890       84.4536+42.2268j 58.6612+29.3306j 59.2240+29.6120j 

TOTAL NODE POWERS (kW/kVAR) - FBS RESULTS
                          A                 B                 C
sourcebus    0.0000+0.0000j    0.0000+0.0000j    0.0000+0.0000j
800          0.0000+0.0000j    0.0000+0.0000j    0.0000+0.0000j
802          0.0000+0.0000j   14.9934+7.4967j   12.4984+6.9991j
806          0.0000+0.0000j   14.9904+7.4952j   12.4980+6.9989j
808          0.0000+0.0000j    7.9798+3.9899j    0.0000+0.0000j
810          0.0000+0.0000j    7.9773+3.9887j    0.0000+0.0000j
812          0.0000+0.0000j    0.0000+0.0000j    0.0000+0.0000j
814          0.0000+0.0000j    0.0000+0.0000j    0.0000+0.0000j
814r         0.0000+0.0000j    0.0000+0.0000j    0.0000+0.0000j
850          0.0000+0.0000j    0.0000+0.0000j    0.0000+0.0000j
816          0.0000+0.0000j    1.3100+0.5240j    1.3297+0.5319j
818         19.8301+9.9151j    0.0000+0.0000j    0.0000+0.0000j
824          0.0000+0.0000j  22.2154+10.9770j    3.4554+1.5948j
820        94.0216+48.4016j    0.0000+0.0000j    0.0000+0.0000j
822        74.6523+38.7086j    0.0000+0.0000j    0.0000+0.0000j
826          0.0000+0.0000j  20.9004+10.4502j    0.0000+0.0000j
828          4.0855+1.7509j    0.0000+0.0000j    2.1263+1.0631j
830        24.4718+10.4879j   10.4449+5.2224j   18.5774+7.9617j
854          0.0000+0.0000j    2.0890+1.0445j    0.0000+0.0000j
832          4.8236+2.0672j    1.2211+0.6105j    3.7232+1.8616j
858         12.0027+5.8299j    6.9907+3.6473j   12.3513+6.4844j
834        48.7783+24.5597j   16.6317+8.4670j  48.5226+24.5684j
860        94.7426+55.8913j  47.1361+31.1219j  80.3963+48.1764j
842          6.1393+3.4107j    0.0000+0.0000j    0.0000+0.0000j
836        30.6588+15.6701j  24.1541+12.3790j  22.7013+11.9642j
840        18.3944+12.6035j  22.9448+14.4915j  17.7920+11.9636j
862          0.0000+0.0000j   16.9072+8.4536j    0.0000+0.0000j
844       190.2379+10.2278j 178.2775+13.2953j 178.0201+12.8911j
846          0.0000+0.0000j  29.0055+13.8985j   12.2831+6.7557j
848       27.2903-182.8452j 38.0716-155.3081j 24.5683-164.6075j
852r         0.0000+0.0000j    0.0000+0.0000j    0.0000+0.0000j
888          0.0000+0.0000j    0.0000+0.0000j    0.0000+0.0000j
856          0.0000+0.0000j    2.0883+1.0442j    0.0000+0.0000j
852          0.0000+0.0000j    0.0000+0.0000j    0.0000+0.0000j
864          1.3717+0.6859j    0.0000+0.0000j    0.0000+0.0000j
838          0.0000+0.0000j   16.9017+8.4508j    0.0000+0.0000j
...